[Format]      =  1
[Precision]   =  1e-008
[MinAngle]    =  30
[DoSmartMesh] =  1
[Depth]       =  1
[LengthUnits] =  meters
[ProblemType] =  planar
[Coordinates] =  cartesian
[Comment]     =  "Add comments here."
[PointProps]   = 0
[BdryProps]   = 2
  <BeginBdry>
    <BdryName> = "V=1"
    <BdryType> = 0
    <Vs> = 1
    <qs> = 0
    <c0> = 0
    <c1> = 0
  <EndBdry>
  <BeginBdry>
    <BdryName> = "V=0"
    <BdryType> = 0
    <Vs> = 0
    <qs> = 0
    <c0> = 0
    <c1> = 0
  <EndBdry>
[BlockProps]  = 1
  <BeginBlock>
    <BlockName> = "air"
    <ex> = 1
    <ey> = 1
    <qv> = 0
  <EndBlock>
[ConductorProps]  = 0
[NumPoints] = 6
1	0	0	0	0
2	0	0	0	0
1	1	0	0	0
2	1	0	0	0
1	0.5	0	0	0
2	0.5	0	0	0
[NumSegments] = 6
2	3	-1	0	0	0	0
3	5	-1	1	0	0	0
1	0	-1	0	0	0	0
0	4	-1	2	0	0	0
4	2	-1	2	0	0	0
5	1	-1	1	0	0	0
[NumArcSegments] = 0
[NumHoles] = 0
[NumBlockLabels] = 1
1.6459999999999999	0.66600000000000004	1	-1	0	0
